data_subtitutions
_audit_creation_method    igor
_audit_author_name 'sponge bob'
_cell_length_a         22.6273003
_cell_length_b         22.6273003
_cell_length_c         18.7943001
_cell_angle_alpha         90.0000000
_cell_angle_beta         90.0000000
_cell_angle_gamma        120.0000000
_cell_volume       8333.4003906
_symmetry_space_group_name_hall 'p 1'
_symmetry_space_group_name_h-m 'p 1'
_symmetry_int_tables_number 1
_symmetry_equiv_pos_as_xyz 'x,y,z'
loop_
_atom_site_label
_atom_site_fract_x
_atom_site_fract_y
_atom_site_fract_z
_atom_site_charge
Zn        0.0793500      0.4141100      0.3750000       0.6918000
Zn        0.0793500      0.4141100      0.8750000       0.6918000
Zn        0.9181400      0.5841300      0.1250000       0.6918000
Zn        0.9181400      0.5841300      0.6250000       0.6918000
Zn        0.5837600      0.6647400      0.3750000       0.6918000
Zn        0.5837600      0.6647400      0.8750000       0.6918000
Zn        0.3331300      0.9185200      0.3750000       0.6918000
Zn        0.3331300      0.9185200      0.8750000       0.6918000
Zn        0.6643600      0.0797200      0.1250000       0.6918000
Zn        0.6643600      0.0797200      0.6250000       0.6918000
Zn        0.4137400      0.3335100      0.1250000       0.6918000
Zn        0.4137400      0.3335100      0.6250000       0.6918000
Zn        0.6643600      0.5841300      0.1250000       0.6918000
Zn        0.6643600      0.5841300      0.6250000       0.6918000
Zn        0.9181400      0.3335100      0.1250000       0.6918000
Zn        0.9181400      0.3335100      0.6250000       0.6918000
Zn        0.4137400      0.0797200      0.1250000       0.6918000
Zn        0.4137400      0.0797200      0.6250000       0.6918000
Zn        0.5837600      0.9185200      0.3750000       0.6918000
Zn        0.5837600      0.9185200      0.8750000       0.6918000
Zn        0.0793500      0.6647400      0.3750000       0.6918000
Zn        0.0793500      0.6647400      0.8750000       0.6918000
Zn        0.3331300      0.4141100      0.3750000       0.6918000
Zn        0.3331300      0.4141100      0.8750000       0.6918000
C1        0.9872600      0.3796500      0.2580500       0.4291000
N1        0.9476600      0.3274100      0.2132600      -0.3879000
N1        0.0121000      0.3596300      0.3131900      -0.3879000
C2        0.9474700      0.2711100      0.2417500      -0.0839000
C2        0.9867200      0.2907300      0.3026200      -0.0839000
C3        0.0018300      0.4510100      0.2478400      -0.4526000
H2        0.9982900      0.2606500      0.3389400       0.1128000
H2        0.9195800      0.2212900      0.2168700       0.1128000
H3        0.0498300      0.4803800      0.2141900       0.1318667
H3        0.9569000      0.4503700      0.2196600       0.1318667
H3        0.0099100      0.4768700      0.3018600       0.1318667
C1        0.9789600      0.3763900      0.7638700       0.4291000
N1        0.9476600      0.3274100      0.7132600      -0.3879000
N1        0.0121000      0.3596300      0.8131900      -0.3879000
C2        0.9618400      0.2767600      0.7316700      -0.0839000
C2        0.0010900      0.2963800      0.7925400      -0.0839000
C3        0.9771500      0.4413000      0.7651400      -0.4526000
H2        0.0218400      0.2699000      0.8224300       0.1128000
H2        0.9431300      0.2305500      0.7003600       0.1128000
H3        0.0221800      0.4819700      0.7335700       0.1318667
H3        0.9274300      0.4325500      0.7403100       0.1318667
H3        0.9804400      0.4590500      0.8225100       0.1318667
C4        0.9904200      0.6236300      0.9941600       0.2593000
N1        0.0498300      0.6708300      0.9632600      -0.3879000
N1        0.9853900      0.6386100      0.0631900      -0.3879000
C2        0.0843700      0.7184100      0.0158300      -0.0839000
C2        0.0451200      0.6987800      0.0767000      -0.0839000
H2        0.9513200      0.5789400      0.9667500       0.1128000
H2        0.0554600      0.7232900      0.1283800       0.1128000
H2        0.1341800      0.7626500      0.0063200       0.1128000
C4        0.0267600      0.6273500      0.5196400       0.2593000
N1        0.0498300      0.6708300      0.4632600      -0.3879000
N1        0.9853900      0.6386100      0.5631900      -0.3879000
C5        0.0213800      0.7119600      0.4716800       0.0390000
C5        0.9821300      0.6923300      0.5325500       0.0390000
H2        0.0399200      0.5880100      0.5288600       0.1128000
C6        0.9480400      0.7258200      0.5528300      -0.1178500
C6        0.0265300      0.7650600      0.4311100      -0.1178500
C6        0.9531900      0.7789200      0.5122600      -0.1178500
C6        0.9924400      0.7985500      0.4513900      -0.1178500
H1        0.9155800      0.7095900      0.6031600       0.1128000
H1        0.0589900      0.7812900      0.3807800       0.1128000
H1        0.9249800      0.8066200      0.5290300       0.1128000
H1        0.9966900      0.8424800      0.4178300       0.1128000
C4        0.6191400      0.6225800      0.2478500       0.2593000
N1        0.6704600      0.6197400      0.2132600      -0.3879000
N1        0.6382400      0.6519700      0.3131900      -0.3879000
C2        0.7251700      0.6490500      0.2594300      -0.0839000
C2        0.7055400      0.6686700      0.3203000      -0.0839000
H2        0.5685200      0.6034900      0.2257500       0.1128000
H2        0.7346100      0.6932200      0.3679000       0.1128000
H2        0.7739700      0.6538600      0.2458300       0.1128000
C1        0.6182200      0.6071100      0.7580500       0.4291000
N1        0.6704600      0.6197400      0.7132600      -0.3879000
N1        0.6382400      0.6519700      0.8131900      -0.3879000
C2        0.7267600      0.6758600      0.7417500      -0.0839000
C2        0.7071400      0.6954800      0.8026200      -0.0839000
C3        0.5468600      0.5503300      0.7478400      -0.4526000
H2        0.7372200      0.7371400      0.8389400       0.1128000
H2        0.7765800      0.6977800      0.7168700       0.1128000
H3        0.5174900      0.5689600      0.7141900       0.1318667
H3        0.5475000      0.5060400      0.7196600       0.1318667
H3        0.5210000      0.5325400      0.8018600       0.1318667
C1        0.3659100      0.9907900      0.2441600       0.4291000
N1        0.3781300      0.0502100      0.2132600      -0.3879000
N1        0.3459000      0.9857700      0.3131900      -0.3879000
C2        0.3650800      0.0847400      0.2658200      -0.0839000
C2        0.3454600      0.0454900      0.3266900      -0.0839000
C3        0.3736000      0.9370700      0.2065100      -0.4526000
H2        0.3312900      0.0558400      0.3783700       0.1128000
H2        0.3706500      0.1345500      0.2563000       0.1128000
H3        0.3231800      0.8994900      0.1801600       0.1318667
H3        0.4150000      0.9618100      0.1641700       0.1318667
H3        0.3884900      0.9088100      0.2463800       0.1318667
C4        0.3387700      0.9869000      0.7414400       0.2593000
N1        0.3781300      0.0502100      0.7132600      -0.3879000
N1        0.3459000      0.9857700      0.8131900      -0.3879000
C5        0.4121000      0.0914700      0.7705500       0.0390000
C5        0.3924800      0.0522300      0.8314200       0.0390000
H2        0.3053600      0.9422200      0.7101100       0.1128000
C6        0.4194400      0.0817800      0.8963100      -0.1178500
C6        0.4586800      0.1602600      0.7745900      -0.1178500
C6        0.4660100      0.1505700      0.9003500      -0.1178500
C6        0.4856400      0.1898200      0.8394900      -0.1178500
H1        0.4032000      0.0493200      0.9466500       0.1128000
H1        0.4749100      0.1927200      0.7242500       0.1128000
H1        0.4883200      0.1750200      0.9540400       0.1128000
H1        0.5241700      0.2467300      0.8428300       0.1128000
C4        0.6137300      0.9954300      0.0025900       0.2593000
N1        0.6193700      0.9480300      0.9632600      -0.3879000
N1        0.6515900      0.0124700      0.0631900      -0.3879000
C2        0.6633500      0.9343300      0.0012200      -0.0839000
C2        0.6829800      0.9735800      0.0620900      -0.0839000
H2        0.5824600      0.0172400      0.9873000       0.1128000
H2        0.7168900      0.9765300      0.1044600       0.1128000
H2        0.6775400      0.8978200      0.9823900       0.1128000
C4        0.6315900      0.0074500      0.4941600       0.2593000
N1        0.6193700      0.9480300      0.4632600      -0.3879000
N1        0.6515900      0.0124700      0.5631900      -0.3879000
C2        0.6324000      0.9135000      0.5158300      -0.0839000
C2        0.6520300      0.9527400      0.5767000      -0.0839000
H2        0.6260000      0.0465500      0.4667500       0.1128000
H2        0.6662000      0.9424000      0.6283800       0.1128000
H2        0.6268400      0.8636900      0.5063100       0.1128000
C4        0.3783500      0.3756600      0.9978500       0.2593000
N1        0.3270400      0.3785000      0.9632600      -0.3879000
N1        0.3592600      0.3462800      0.0631900      -0.3879000
C2        0.2723300      0.3492100      0.0094400      -0.0839000
C2        0.2919600      0.3295800      0.0703100      -0.0839000
H2        0.4289700      0.3947400      0.9757400       0.1128000
H2        0.2628900      0.3050400      0.1179100       0.1128000
H2        0.2235300      0.3444000      0.9958400       0.1128000
C1        0.3742400      0.3662800      0.4941600       0.4291000
N1        0.3270400      0.3785000      0.4632600      -0.3879000
N1        0.3592600      0.3462800      0.5631900      -0.3879000
C2        0.2794700      0.3654700      0.5158300      -0.0839000
C2        0.2990900      0.3458400      0.5767000      -0.0839000
C3        0.4356400      0.3739600      0.4565000      -0.4526000
H2        0.2745800      0.3316800      0.6283900       0.1128000
H2        0.2352200      0.3710300      0.5063200       0.1128000
H3        0.4228000      0.3235400      0.4301600       0.1318667
H3        0.4523000      0.4153600      0.4141600       0.1318667
H3        0.4788000      0.3888600      0.4963600       0.1318667
C4        0.9950500      0.6141000      0.2525900       0.2593000
N1        0.0121000      0.6519700      0.3131900      -0.3879000
N1        0.9476600      0.6197400      0.2132600      -0.3879000
C2        0.9732100      0.6833600      0.3120900      -0.0839000
C2        0.9339600      0.6637400      0.2512200      -0.0839000
H2        0.0168600      0.5828300      0.2373000       0.1128000
H2        0.8974500      0.6779300      0.2323800       0.1128000
H2        0.9761700      0.7172900      0.3544500       0.1128000
C4        0.9872600      0.6071100      0.7580500       0.2593000
N1        0.0121000      0.6519700      0.8131900      -0.3879000
N1        0.9476600      0.6197400      0.7132600      -0.3879000
C2        0.9867200      0.6954800      0.8026200      -0.0839000
C2        0.9474700      0.6758600      0.7417500      -0.0839000
H2        0.9978600      0.5657800      0.7506200       0.1128000
H2        0.9195800      0.6977800      0.7168700       0.1128000
H2        0.9982900      0.7371400      0.8389400       0.1128000
C4        0.0267600      0.3989100      0.0196400       0.2593000
N1        0.9853900      0.3462800      0.0631900      -0.3879000
N1        0.0498300      0.3785000      0.9632600      -0.3879000
C2        0.9821300      0.2893000      0.0325500      -0.0839000
C2        0.0213800      0.3089300      0.9716800      -0.0839000
H2        0.0399200      0.4514100      0.0288600       0.1128000
H2        0.0310000      0.2784100      0.9339900       0.1128000
H2        0.9522800      0.2390600      0.0560600       0.1128000
C4        0.9956800      0.3756600      0.4978500       0.2593000
N1        0.9853900      0.3462800      0.5631900      -0.3879000
N1        0.0498300      0.3785000      0.4632600      -0.3879000
C2        0.0359900      0.3295800      0.5703100      -0.0839000
C2        0.0752400      0.3492000      0.5094400      -0.0839000
H2        0.9641500      0.3947500      0.4757500       0.1128000
H2        0.1192300      0.3443900      0.4958400       0.1128000
H2        0.0405200      0.3050400      0.6179100       0.1128000
C4        0.3752900      0.3787300      0.2478500       0.2593000
N1        0.3459000      0.3596300      0.3131900      -0.3879000
N1        0.3781300      0.3274100      0.2132600      -0.3879000
C2        0.3292000      0.2923300      0.3203000      -0.0839000
C2        0.3488200      0.2727000      0.2594300      -0.0839000
H2        0.3943800      0.4293500      0.2257500       0.1128000
H2        0.3440100      0.2239000      0.2458300       0.1128000
H2        0.3046500      0.2632600      0.3679000       0.1128000
C1        0.3659100      0.3746100      0.7441600       0.4291000
N1        0.3459000      0.3596300      0.8131900      -0.3879000
N1        0.3781300      0.3274100      0.7132600      -0.3879000
C2        0.3454500      0.2994600      0.8266900      -0.0839000
C2        0.3650800      0.2798400      0.7658300      -0.0839000
C3        0.3736000      0.4360200      0.7065100      -0.4526000
H2        0.3706400      0.2355900      0.7563100       0.1128000
H2        0.3312800      0.2749400      0.8783800       0.1128000
H3        0.3231800      0.4231900      0.6801600       0.1318667
H3        0.3885000      0.4791800      0.7463700       0.1318667
H3        0.4150000      0.4526800      0.6641700       0.1318667
C1        0.6295000      0.9873800      0.2417700       0.4291000
N1        0.6382400      0.9857700      0.3131900      -0.3879000
N1        0.6704600      0.0502100      0.2132600      -0.3879000
C2        0.6876000      0.0514100      0.3308400      -0.0839000
C2        0.7072200      0.0906500      0.2699700      -0.0839000
C3        0.5804100      0.9269200      0.1993900      -0.4526000
H2        0.7445700      0.1442300      0.2631000       0.1128000
H2        0.7052100      0.0655200      0.3851700       0.1128000
H3        0.6068800      0.8984700      0.1794500       0.1318667
H3        0.5351400      0.8915200      0.2342500       0.1318667
H3        0.5616400      0.9445200      0.1520500       0.1318667
C4        0.6374300      0.9860600      0.7408400       0.2593000
N1        0.6382400      0.9857700      0.8131900      -0.3879000
N1        0.6704600      0.0502100      0.7132600      -0.3879000
C2        0.6738600      0.0537000      0.8324500      -0.0839000
C2        0.6934800      0.0929500      0.7715800      -0.0839000
H2        0.6131000      0.9401500      0.7086600       0.1128000
H2        0.7220600      0.1480000      0.7657300       0.1128000
H2        0.6827000      0.0692800      0.8878000       0.1128000
C4        0.3792700      0.9876300      0.0080500       0.2593000
N1        0.3592600      0.0124700      0.0631900      -0.3879000
N1        0.3270400      0.9480300      0.9632600      -0.3879000
C2        0.2903600      0.9870900      0.0526300      -0.0839000
C2        0.2707300      0.9478400      0.9917600      -0.0839000
H2        0.4312100      0.9982400      0.0006100       0.1128000
H2        0.2209200      0.9199500      0.9668800       0.1128000
H2        0.2602800      0.9986600      0.0889500       0.1128000
C4        0.3800700      0.9954200      0.5025900       0.2593000
N1        0.3592600      0.0124700      0.5631900      -0.3879000
N1        0.3270400      0.9480300      0.4632600      -0.3879000
C5        0.2889800      0.9735900      0.5620900       0.0390000
C5        0.2693500      0.9343400      0.5012200       0.0390000
H2        0.4331600      0.0172400      0.4873000       0.1128000
C6        0.2011300      0.8907200      0.4876300      -0.1178500
C6        0.2403700      0.9692000      0.6093400      -0.1178500
C6        0.1525200      0.8863300      0.5348800      -0.1178500
C6        0.1721500      0.9255800      0.5957500      -0.1178500
H1        0.1849000      0.8582600      0.4372900       0.1128000
H1        0.2566000      0.0016600      0.6596800       0.1128000
H1        0.0960800      0.8502500      0.5236300       0.1128000
H1        0.1319400      0.9219600      0.6348400       0.1128000
C4        0.6067300      0.6185900      0.0080500       0.2593000
N1        0.6515900      0.6386100      0.0631900      -0.3879000
N1        0.6193700      0.6708300      0.9632600      -0.3879000
C2        0.6951000      0.7075100      0.0526300      -0.0839000
C2        0.6754800      0.7271400      0.9917600      -0.0839000
H2        0.5654100      0.5666600      0.0006100       0.1128000
H2        0.6974000      0.7769500      0.9668800       0.1128000
H2        0.7367600      0.7375900      0.0889500       0.1128000
C4        0.6222100      0.6195200      0.4978500       0.2593000
N1        0.6515900      0.6386100      0.5631900      -0.3879000
N1        0.6193700      0.6708300      0.4632600      -0.3879000
C5        0.6682900      0.7059100      0.5703100       0.0390000
C5        0.6486700      0.7255400      0.5094400       0.0390000
H2        0.6031200      0.5689000      0.4757500       0.1128000
C6        0.6598500      0.7910500      0.5033400      -0.1178500
C6        0.6991000      0.7518000      0.6250500      -0.1178500
C6        0.6906600      0.8369300      0.5580900      -0.1178500
C6        0.7102800      0.8173000      0.6189500      -0.1178500
H1        0.6436300      0.8072800      0.4530000       0.1128000
H1        0.7153200      0.7355700      0.6753900       0.1128000
H1        0.6999200      0.8911200      0.5530400       0.1128000
H1        0.7357700      0.8552700      0.6642500       0.1128000
C4        0.2163200      0.4342800      0.3549700       0.2593000
N1        0.2476300      0.3968700      0.3455200      -0.3879000
N1        0.1476100      0.3968700      0.3455200      -0.3879000
C2        0.1956600      0.3320400      0.3291400      -0.0839000
C2        0.1347400      0.3320400      0.3291400      -0.0839000
H2        0.2432200      0.4880700      0.3685700       0.1128000
H2        0.0834300      0.2906600      0.3186900       0.1128000
H2        0.2056000      0.2906600      0.3186900       0.1128000
C4        0.2030500      0.4077200      0.8840300       0.2593000
N1        0.2476300      0.3968700      0.8455200      -0.3879000
N1        0.1476100      0.3968700      0.8455200      -0.3879000
C2        0.2186800      0.3780600      0.7787900      -0.0839000
C2        0.1577500      0.3780600      0.7787900      -0.0839000
H2        0.2108500      0.4233300      0.9393900       0.1128000
H2        0.1211200      0.3660600      0.7362100       0.1128000
H2        0.2433000      0.3660600      0.7362100       0.1128000
C4        0.7898500      0.5813300      0.1297900       0.2593000
N1        0.7498600      0.6013800      0.0955300      -0.3879000
N1        0.8498900      0.6013800      0.0955300      -0.3879000
C5        0.7867900      0.6361300      0.0361600       0.0390000
C5        0.8477100      0.6361300      0.0361600       0.0390000
H2        0.7754300      0.5525000      0.1790400       0.1128000
C6        0.8940200      0.6678500      0.9819500      -0.1178500
C6        0.7722000      0.6678500      0.9819500      -0.1178500
C6        0.8794400      0.6995800      0.9277500      -0.1178500
C6        0.8185100      0.6995800      0.9277500      -0.1178500
H1        0.9444000      0.6678500      0.9819500       0.1128000
H1        0.7218200      0.6678500      0.9819500       0.1128000
H1        0.9177500      0.7258200      0.8829100       0.1128000
H1        0.8064400      0.7258200      0.8829100       0.1128000
C1        0.7898500      0.5813300      0.6297900       0.4291000
N1        0.7498600      0.6013800      0.5955300      -0.3879000
N1        0.8498900      0.6013800      0.5955300      -0.3879000
C2        0.7867900      0.6361300      0.5361600      -0.0839000
C2        0.8477100      0.6361300      0.5361600      -0.0839000
C3        0.7700400      0.5417200      0.6974600      -0.4526000
H2        0.8894300      0.6583100      0.4982700       0.1128000
H2        0.7672500      0.6583100      0.4982700       0.1128000
H3        0.7884000      0.5784400      0.7445100       0.1318667
H3        0.7121500      0.5082100      0.6998200       0.1318667
H3        0.7944300      0.5082100      0.6998200       0.1318667
C1        0.5672100      0.7833600      0.3647500       0.4291000
N1        0.6010000      0.8502600      0.3455200      -0.3879000
N1        0.6010000      0.7502400      0.3455200      -0.3879000
C2        0.6595600      0.8599900      0.3122000      -0.0839000
C2        0.6595600      0.7990700      0.3122000      -0.0839000
C3        0.5004700      0.7499800      0.4027300      -0.4526000
H2        0.6969300      0.7871200      0.2909400       0.1128000
H2        0.6969300      0.9093000      0.2909400       0.1128000
H3        0.5097200      0.7546100      0.4626100       0.1318667
H3        0.4703100      0.7760400      0.3873100       0.1318667
H3        0.4703100      0.6937700      0.3873100       0.1318667
C4        0.5731400      0.7863200      0.8732100       0.2593000
N1        0.6010000      0.8502600      0.8455200      -0.3879000
N1        0.6010000      0.7502400      0.8455200      -0.3879000
C2        0.6492900      0.8548600      0.7975400      -0.0839000
C2        0.6492900      0.7939300      0.7975400      -0.0839000
H2        0.5330700      0.7662900      0.9130200       0.1128000
H2        0.6801100      0.7787200      0.7669100       0.1128000
H2        0.6801100      0.9008900      0.7669100       0.1128000
C4        0.2076400      0.7902300      0.3797900       0.2593000
N1        0.1476100      0.7502400      0.3455200      -0.3879000
N1        0.2476300      0.8502600      0.3455200      -0.3879000
C2        0.1497900      0.7871600      0.2861400      -0.0839000
C2        0.2107100      0.8480800      0.2861400      -0.0839000
H2        0.2220500      0.7758200      0.4290500       0.1128000
H2        0.2302600      0.8897900      0.2482500       0.1128000
H2        0.1080800      0.7676100      0.2482500       0.1128000
C4        0.1884000      0.8094700      0.8807500       0.2593000
N1        0.1476100      0.7502400      0.8455200      -0.3879000
N1        0.2476300      0.8502600      0.8455200      -0.3879000
C2        0.1831400      0.7538100      0.7844700      -0.0839000
C2        0.2440600      0.8147300      0.7844700      -0.0839000
H2        0.1751400      0.8227300      0.9314000       0.1128000
H2        0.2848800      0.8351600      0.7455100       0.1128000
H2        0.1627100      0.7129900      0.7455100       0.1128000
C4        0.8044000      0.1934600      0.1345300       0.2593000
N1        0.8498800      0.2480000      0.0955200      -0.3879000
N1        0.7498600      0.1479800      0.0955200      -0.3879000
C5        0.8224800      0.2363000      0.0279300       0.0390000
C5        0.7615600      0.1753800      0.0279300       0.0390000
H2        0.8109200      0.1869500      0.1906200       0.1128000
C6        0.7239400      0.1521000      0.9662100      -0.1178500
C6        0.8457600      0.2739200      0.9662100      -0.1178500
C6        0.7472300      0.1897200      0.9045000      -0.1178500
C6        0.8081500      0.2506400      0.9045000      -0.1178500
H1        0.6735600      0.1017100      0.9662100       0.1128000
H1        0.8961500      0.3243000      0.9662100       0.1128000
H1        0.7161100      0.1704500      0.8534500       0.1128000
H1        0.8274100      0.2817600      0.8534500       0.1128000
C4        0.7944400      0.2034200      0.6340300       0.2593000
N1        0.8498800      0.2480000      0.5955200      -0.3879000
N1        0.7498600      0.1479800      0.5955200      -0.3879000
C2        0.8397400      0.2190500      0.5288000      -0.0839000
C2        0.7788200      0.1581200      0.5288000      -0.0839000
H2        0.7866400      0.2112300      0.6893900       0.1128000
H2        0.7542000      0.1214900      0.4862100       0.1128000
H2        0.8763800      0.2436700      0.4862100       0.1128000
C4        0.4165400      0.2080200      0.1297900       0.2593000
N1        0.3964900      0.1479800      0.0955300      -0.3879000
N1        0.3964900      0.2480000      0.0955300      -0.3879000
C5        0.3617400      0.1501500      0.0361600       0.0390000
C5        0.3617400      0.2110800      0.0361600       0.0390000
H2        0.4453700      0.2224300      0.1790400       0.1128000
C6        0.3300200      0.2256600      0.9819500      -0.1178500
C6        0.3300200      0.1038400      0.9819500      -0.1178500
C6        0.2982900      0.1793500      0.9277500      -0.1178500
C6        0.2982900      0.1184300      0.9277500      -0.1178500
H1        0.3300200      0.2760500      0.9819500       0.1128000
H1        0.3300200      0.0534600      0.9819500       0.1128000
H1        0.2720500      0.1914200      0.8829100       0.1128000
H1        0.2720500      0.0801200      0.8829100       0.1128000
C4        0.4339000      0.2167000      0.6049700       0.2593000
N1        0.3964900      0.1479800      0.5955300      -0.3879000
N1        0.3964900      0.2480000      0.5955300      -0.3879000
C2        0.3316500      0.1351100      0.5791600      -0.0839000
C2        0.3316500      0.1960300      0.5791600      -0.0839000
H2        0.4876900      0.2435900      0.6185400       0.1128000
H2        0.2902800      0.2059700      0.5687200       0.1128000
H2        0.2902800      0.0838000      0.5687200       0.1128000
C4        0.1002200      0.5498600      0.4057300       0.2593000
N1        0.1116500      0.6055900      0.3674000      -0.3879000
N1        0.1116500      0.5055700      0.3674000      -0.3879000
C2        0.1314800      0.5959500      0.3009900      -0.0839000
C2        0.1314800      0.5350300      0.3009900      -0.0839000
H2        0.0837700      0.5416300      0.4608200       0.1128000
H2        0.1441300      0.5107300      0.2586100       0.1128000
H2        0.1441300      0.6329000      0.2586100       0.1128000
C4        0.0741000      0.5368000      0.8762300       0.2593000
N1        0.1116500      0.6055900      0.8674000      -0.3879000
N1        0.1116500      0.5055700      0.8674000      -0.3879000
C5        0.1767300      0.6185700      0.8520900       0.0390000
C5        0.1767300      0.5576500      0.8520900       0.0390000
H2        0.0201200      0.5098100      0.8889300       0.1128000
C6        0.2361300      0.5569100      0.8381200      -0.1178500
C6        0.2361300      0.6787300      0.8381200      -0.1178500
C6        0.2955400      0.6170600      0.8241500      -0.1178500
C6        0.2955400      0.6779800      0.8241500      -0.1178500
H1        0.2361300      0.5065200      0.8381200       0.1128000
H1        0.2361300      0.7291100      0.8381200       0.1128000
H1        0.3446900      0.6164400      0.8125900       0.1128000
H1        0.3446900      0.7277500      0.8125900       0.1128000
C4        0.9183800      0.4589400      0.0959600       0.2593000
N1        0.8858400      0.3926600      0.1174000      -0.3879000
N1        0.8858400      0.4926800      0.1174000      -0.3879000
C2        0.8294400      0.3840100      0.1545500      -0.0839000
C2        0.8294400      0.4449300      0.1545500      -0.0839000
H2        0.9651700      0.4823300      0.0651400       0.1128000
H2        0.7934500      0.4575600      0.1782600       0.1128000
H2        0.7934500      0.3353900      0.1782600       0.1128000
C4        0.9199100      0.4597100      0.6360700       0.2593000
N1        0.8858400      0.3926600      0.6174000      -0.3879000
N1        0.8858400      0.4926800      0.6174000      -0.3879000
C5        0.8267800      0.3826800      0.5850500       0.0390000
C5        0.8267800      0.4436000      0.5850500       0.0390000
H2        0.9689100      0.4842000      0.6629000       0.1128000
C6        0.7728700      0.4471000      0.5555200      -0.1178500
C6        0.7728700      0.3252700      0.5555200      -0.1178500
C6        0.7189600      0.3896900      0.5259900      -0.1178500
C6        0.7189600      0.3287700      0.5259900      -0.1178500
H1        0.7728700      0.4974800      0.5555200       0.1128000
H1        0.7728700      0.2748900      0.5555200       0.1128000
H1        0.6743600      0.3925800      0.5015600       0.1128000
H1        0.6743600      0.2812800      0.5015600       0.1128000
C4        0.4564400      0.5414300      0.3946300       0.2593000
N1        0.3922800      0.5055700      0.3674000      -0.3879000
N1        0.4923000      0.6055900      0.3674000      -0.3879000
C5        0.3873200      0.5496200      0.3202200       0.0390000
C5        0.4482500      0.6105500      0.3202200       0.0390000
H2        0.4767700      0.5211000      0.4337700       0.1128000
C6        0.4563200      0.6633700      0.2771500      -0.1178500
C6        0.3345000      0.5415500      0.2771500      -0.1178500
C6        0.4035000      0.6552900      0.2340800      -0.1178500
C6        0.3425800      0.5943700      0.2340800      -0.1178500
H1        0.5067100      0.7137500      0.2771500       0.1128000
H1        0.2841200      0.4911600      0.2771500       0.1128000
H1        0.4101800      0.6989900      0.1984500       0.1128000
H1        0.2988800      0.5876900      0.1984500       0.1128000
C4        0.4525700      0.5453000      0.9013300       0.2593000
N1        0.3922800      0.5055700      0.8674000      -0.3879000
N1        0.4923000      0.6055900      0.8674000      -0.3879000
C5        0.3940200      0.5429300      0.8086000       0.0390000
C5        0.4549400      0.6038500      0.8086000       0.0390000
H2        0.4673600      0.5305100      0.9501100       0.1128000
C6        0.4691200      0.6505700      0.7549200      -0.1178500
C6        0.3473000      0.5287500      0.7549200      -0.1178500
C6        0.4224100      0.6363800      0.7012400      -0.1178500
C6        0.3614900      0.5754600      0.7012400      -0.1178500
H1        0.5195000      0.7009500      0.7549200       0.1128000
H1        0.2969200      0.4783700      0.7549200       0.1128000
H1        0.4341400      0.6750300      0.6568400       0.1128000
H1        0.3228400      0.5637300      0.6568400       0.1128000
C1        0.4593300      0.9203000      0.3860700       0.4291000
N1        0.4923000      0.8862200      0.3674000      -0.3879000
N1        0.3922800      0.8862200      0.3674000      -0.3879000
C2        0.4432300      0.8271600      0.3350600      -0.0839000
C2        0.3823000      0.8271600      0.3350600      -0.0839000
C3        0.4929900      0.9876100      0.4229400      -0.4526000
H2        0.3328300      0.7894700      0.3144100       0.1128000
H2        0.4550100      0.7894700      0.3144100       0.1128000
H3        0.4888200      0.9792700      0.4829700       0.1318667
H3        0.5490900      0.0175300      0.4070200       0.1318667
H3        0.4668100      0.0175300      0.4070200       0.1318667
C1        0.4615300      0.9246800      0.8658000       0.4291000
N1        0.4923000      0.8862200      0.8674000      -0.3879000
N1        0.3922800      0.8862200      0.8674000      -0.3879000
C2        0.4394300      0.8195600      0.8701800      -0.0839000
C2        0.3785000      0.8195600      0.8701800      -0.0839000
C3        0.4995100      0.0006600      0.8626400      -0.4526000
H2        0.3266100      0.7770300      0.8719500       0.1128000
H2        0.4487900      0.7770300      0.8719500       0.1128000
H3        0.5103000      0.0222200      0.9189700       0.1318667
H3        0.5497900      0.0189400      0.8332600       0.1318667
H3        0.4675200      0.0189400      0.8332600       0.1318667
C4        0.5359700      0.0735600      0.1158000       0.2593000
N1        0.5051900      0.1120200      0.1174000      -0.3879000
N1        0.6052100      0.1120200      0.1174000      -0.3879000
C5        0.5580700      0.1786800      0.1201800       0.0390000
C5        0.6189900      0.1786800      0.1201800       0.0390000
H2        0.5083200      0.0182600      0.1135000       0.1128000
C6        0.6798700      0.2395300      0.1227100      -0.1178500
C6        0.5580400      0.2395300      0.1227100      -0.1178500
C6        0.6798400      0.3003800      0.1252400      -0.1178500
C6        0.6189200      0.3003800      0.1252400      -0.1178500
H1        0.7302500      0.2395300      0.1227100       0.1128000
H1        0.5076600      0.2395300      0.1227100       0.1128000
H1        0.7302000      0.3507200      0.1273400       0.1128000
H1        0.6189000      0.3507200      0.1273400       0.1128000
C1        0.5449200      0.0914600      0.6513300       0.4291000
N1        0.5051900      0.1120200      0.6174000      -0.3879000
N1        0.6052100      0.1120200      0.6174000      -0.3879000
C2        0.5425600      0.1476600      0.5586000      -0.0839000
C2        0.6034800      0.1476600      0.5586000      -0.0839000
C3        0.5246100      0.0508500      0.7183500      -0.4526000
H2        0.6454800      0.1704000      0.5210800       0.1128000
H2        0.5233000      0.1704000      0.5210800       0.1128000
H3        0.5426200      0.0868600      0.7659900       0.1318667
H3        0.4667100      0.0173000      0.7201700       0.1318667
H3        0.5489800      0.0173000      0.7201700       0.1318667
C4        0.5389300      0.4589400      0.0959600       0.2593000
N1        0.6052100      0.4926800      0.1174000      -0.3879000
N1        0.5051900      0.3926600      0.1174000      -0.3879000
C2        0.6138600      0.4449300      0.1545500      -0.0839000
C2        0.5529400      0.3840100      0.1545500      -0.0839000
H2        0.5155400      0.4823300      0.0651400       0.1128000
H2        0.5403100      0.3353900      0.1782600       0.1128000
H2        0.6624800      0.4575600      0.1782600       0.1128000
C4        0.5364300      0.4614400      0.6262300       0.2593000
N1        0.6052100      0.4926800      0.6174000      -0.3879000
N1        0.5051900      0.3926600      0.6174000      -0.3879000
C2        0.6182000      0.4405900      0.6020900      -0.0839000
C2        0.5572800      0.3796700      0.6020900      -0.0839000
H2        0.5094300      0.4884400      0.6389400       0.1128000
H2        0.5474100      0.3282800      0.5923200       0.1128000
H2        0.6695900      0.4504600      0.5923200       0.1128000
