data_cif
_audit_creation_method 'generated by iGOR'
_symmetry_space_group_name_H-M     'P 1'
_symmetry_Int_Tables_number        1
_symmetry_cell_setting             triclinic
_cell_length_a                     16.2770996
_cell_length_b                     16.2770996
_cell_length_c                     16.2770996
_cell_angle_alpha                  90.0000000
_cell_angle_beta                   90.0000000
_cell_angle_gamma                  90.0000000
loop_
_atom_site_label
_atom_site_fract_x
_atom_site_fract_y
_atom_site_fract_z
 Zn  0.250000000      0.500000000       0.00000000    
 Zn  0.750000000       0.00000000      0.500000000    
 Zn  0.250000000       0.00000000      0.500000000    
 Zn  0.750000000      0.500000000       0.00000000    
 Zn   0.00000000      0.250000000      0.500000000    
 Zn  0.500000000      0.750000000       0.00000000    
 Zn  0.500000000       0.00000000      0.250000000    
 Zn   0.00000000      0.500000000      0.750000000    
 Zn  0.500000000      0.250000000       0.00000000    
 Zn   0.00000000      0.750000000      0.500000000    
 Zn   0.00000000      0.500000000      0.250000000    
 Zn  0.500000000       0.00000000      0.750000000    
 C1  0.621540010      0.988009989      0.378459990    
 N1  0.604030013       0.00000000      0.297650009    
 N1  0.702350020       0.00000000      0.395969987    
 C2  0.678099990       2.07899995E-02  0.262019992    
 C2  0.737980008       2.07899995E-02  0.321900010    
 C2  0.559010029      0.964309990      0.440990001    
 H1  0.803089976       3.40499990E-02  0.317000002    
 H1  0.683000028       3.40499990E-02  0.196909994    
 H2  0.530979991       2.20500007E-02  0.469020009    
 H2  0.508679986      0.926379979      0.410450011    
 H2  0.589550018      0.926379979      0.491320014    
 C1  0.136810005      0.540139973      0.863189995    
 N1  0.104029998      0.500000000      0.797649980    
 N1  0.202350006      0.500000000      0.895969987    
 C2  0.151639998      0.430449992      0.788469970    
 C2  0.211530000      0.430449992      0.848360002    
 C3  0.104440004      0.619409978      0.895560026    
 H1  0.259750009      0.386070013      0.860339999    
 H1  0.139660001      0.386070013      0.740249991    
 H2  0.136620000      0.672640026      0.863380015    
 H2   3.55300009E-02  0.623120010      0.883589983    
 H2  0.116410002      0.623120010      0.964470029    
 C1  0.363189995       4.01399992E-02  0.363189995    
 N1  0.395969987       0.00000000      0.297650009    
 N1  0.297650009       0.00000000      0.395969987    
 C2  0.348360002      0.930450022      0.288470000    
 C2  0.288470000      0.930450022      0.348360002    
 C3  0.395559996      0.119410001      0.395559996    
 H1  0.240250006      0.886070013      0.360339999    
 H1  0.360339999      0.886070013      0.240250006    
 H2  0.444249988      0.106610000      0.444249988    
 H2  0.424030006      0.156140000      0.343160003    
 H2  0.343160003      0.156140000      0.424030006    
 C1  0.863189995      0.459859997      0.863189995    
 N1  0.895969987      0.500000000      0.797649980    
 N1  0.797649980      0.500000000      0.895969987    
 C2  0.848360002      0.569549978      0.788469970    
 C2  0.788469970      0.569549978      0.848360002    
 C3  0.895560026      0.380589992      0.895560026    
 H1  0.740249991      0.613929987      0.860339999    
 H1  0.860339999      0.613929987      0.740249991    
 H2  0.863380015      0.327360004      0.863380015    
 H2  0.964470029      0.376879990      0.883589983    
 H2  0.883589983      0.376879990      0.964470029    
 C1  0.136810005      0.459859997      0.136810005    
 N1  0.104029998      0.500000000      0.202350006    
 N1  0.202350006      0.500000000      0.104029998    
 C2  0.151639998      0.569549978      0.211530000    
 C2  0.211530000      0.569549978      0.151639998    
 C3  0.104440004      0.380589992      0.104440004    
 H1  0.259750009      0.613929987      0.139660001    
 H1  0.139660001      0.613929987      0.259750009    
 H2  0.136620000      0.327360004      0.136620000    
 H2   3.55300009E-02  0.376879990      0.116410002    
 H2  0.116410002      0.376879990       3.55300009E-02
 C1  0.630020022      0.967230022      0.630020022    
 N1  0.604030013       0.00000000      0.702350020    
 N1  0.702350020       0.00000000      0.604030013    
 C2  0.663399994       5.67900017E-02  0.723290026    
 C2  0.723290026       5.67900017E-02  0.663399994    
 H1  0.596710026      0.920120001      0.596710026    
 C3  0.789879978      0.108630002      0.670130014    
 C3  0.670130014      0.108630002      0.789879978    
 C4  0.796599984      0.160469994      0.736720026    
 C4  0.736720026      0.160469994      0.796599984    
 H2  0.839399993      0.108630002      0.620609999    
 H2  0.620609999      0.108630002      0.839399993    
 H3  0.851689994      0.203360006      0.742280006    
 H3  0.742280006      0.203360006      0.851689994    
 C1  0.875190020      0.523169994      0.124810003    
 N1  0.895969987      0.500000000      0.202350006    
 N1  0.797649980      0.500000000      0.104029998    
 C2  0.827570021      0.459850013      0.232309997    
 C2  0.767690003      0.459850013      0.172429994    
 H1  0.915989995      0.556490004       8.40099975E-02
 C3  0.692860007      0.423189998      0.187390000    
 C3  0.812609971      0.423189998      0.307139993    
 C4  0.677890003      0.386530012      0.262219995    
 C4  0.737779975      0.386530012      0.322109997    
 H2  0.643339992      0.423189998      0.137869999    
 H2  0.862129986      0.423189998      0.356660008    
 H3  0.615989983      0.356200010      0.274599999    
 H3  0.725399971      0.356200010      0.384009987    
 C1  0.369980007      0.967230022      0.630020022    
 N1  0.395969987       0.00000000      0.702350020    
 N1  0.297650009       0.00000000      0.604030013    
 C2  0.336600006       5.67900017E-02  0.723290026    
 C2  0.276710004       5.67900017E-02  0.663399994    
 C3  0.415749997      0.902499974      0.584249973    
 H1  0.220980003       9.30299982E-02  0.658919990    
 H1  0.341080010       9.30299982E-02  0.779020011    
 H2  0.460440010      0.932680011      0.539560020    
 H2  0.451350003      0.862649977      0.629519999    
 H2  0.370480001      0.862649977      0.548650026    
 C1  0.378459990      0.621540010      0.988009989    
 N1  0.395969987      0.702350020       0.00000000    
 N1  0.297650009      0.604030013       0.00000000    
 C2  0.321900010      0.737980008       2.07899995E-02
 C2  0.262019992      0.678099990       2.07899995E-02
 C3  0.440990001      0.559010029      0.964309990    
 H1  0.196909994      0.683000028       3.40499990E-02
 H1  0.317000002      0.803089976       3.40499990E-02
 H2  0.444849998      0.555149972      0.894490004    
 H2  0.503409982      0.577459991      0.990159988    
 H2  0.422540009      0.496589988      0.990159988    
 C1  0.875190020      0.124810003      0.523169994    
 N1  0.895969987      0.202350006      0.500000000    
 N1  0.797649980      0.104029998      0.500000000    
 C2  0.827570021      0.232309997      0.459850013    
 C2  0.767690003      0.172429994      0.459850013    
 C3  0.931249976       6.87500015E-02  0.568939984    
 H1  0.706200004      0.173710003      0.434219986    
 H1  0.826290011      0.293799996      0.434219986    
 H2  0.968890011       3.11099999E-02  0.523429990    
 H2  0.974300027      0.106569998      0.609210014    
 H2  0.893429995       2.56999992E-02  0.609210014    
 C1   0.00000000      0.379579991      0.620419979    
 N1   0.00000000      0.395969987      0.702350020    
 N1   0.00000000      0.297650009      0.604030013    
 C2   0.00000000      0.319959998      0.739920020    
 C2   0.00000000      0.260080010      0.680040002    
 C3   0.00000000      0.444310009      0.555689991    
 H1   0.00000000      0.193739995      0.686169982    
 H1   0.00000000      0.313829988      0.806259990    
 H2  0.933969975      0.460819989      0.539179981    
 H2   3.30200009E-02  0.501250029      0.579620004    
 H2   3.30200009E-02  0.420379996      0.498750001    
 C1  0.511990011      0.878459990      0.121540003    
 N1  0.500000000      0.895969987      0.202350006    
 N1  0.500000000      0.797649980      0.104029998    
 C2  0.479209989      0.821900010      0.237979993    
 C2  0.479209989      0.762019992      0.178100005    
 C2  0.535690010      0.940989971       5.90099990E-02
 H1  0.465950012      0.696910024      0.182999998    
 H1  0.465950012      0.816999972      0.303090006    
 H2  0.477950007      0.969020009       3.09800003E-02
 H2  0.573620021      0.991320014       8.95500034E-02
 H2  0.573620021      0.910449982       8.67999997E-03
 C1  0.124810003      0.875190020      0.523169994    
 N1  0.104029998      0.797649980      0.500000000    
 N1  0.202350006      0.895969987      0.500000000    
 C2  0.172429994      0.767690003      0.459850013    
 C2  0.232309997      0.827570021      0.459850013    
 C3   6.87500015E-02  0.931249976      0.568939984    
 H1  0.293799996      0.826290011      0.434219986    
 H1  0.173710003      0.706200004      0.434219986    
 H2   3.11099999E-02  0.968890011      0.523429990    
 H2   2.56999992E-02  0.893429995      0.609210014    
 H2  0.106569998      0.974300027      0.609210014    
 C1  0.621540010      0.378459990       1.19899996E-02
 N1  0.604030013      0.297650009       0.00000000    
 N1  0.702350020      0.395969987       0.00000000    
 C2  0.678099990      0.262019992      0.979210019    
 C2  0.737980008      0.321900010      0.979210019    
 C2  0.559010029      0.440990001       3.56899984E-02
 H1  0.803089976      0.317000002      0.965950012    
 H1  0.683000028      0.196909994      0.965950012    
 H2  0.530979991      0.469020009      0.977949977    
 H2  0.508679986      0.410450011       7.36199990E-02
 H2  0.589550018      0.491320014       7.36199990E-02
 C1   4.01399992E-02  0.363189995      0.363189995    
 N1   0.00000000      0.395969987      0.297650009    
 N1   0.00000000      0.297650009      0.395969987    
 C2  0.930450022      0.348360002      0.288470000    
 C2  0.930450022      0.288470000      0.348360002    
 C3  0.119410001      0.395559996      0.395559996    
 H1  0.886070013      0.240250006      0.360339999    
 H1  0.886070013      0.360339999      0.240250006    
 H2  0.172639996      0.363380015      0.363380015    
 H2  0.123120002      0.464469999      0.383590013    
 H2  0.123120002      0.383590013      0.464469999    
 C1  0.459859997      0.863189995      0.863189995    
 N1  0.500000000      0.895969987      0.797649980    
 N1  0.500000000      0.797649980      0.895969987    
 C2  0.569549978      0.848360002      0.788469970    
 C2  0.569549978      0.788469970      0.848360002    
 C3  0.380589992      0.895560026      0.895560026    
 H1  0.613929987      0.740249991      0.860339999    
 H1  0.613929987      0.860339999      0.740249991    
 H2  0.393390000      0.944249988      0.944249988    
 H2  0.343860000      0.924030006      0.843159974    
 H2  0.343860000      0.843159974      0.924030006    
 C1  0.363189995      0.363189995      0.959860027    
 N1  0.395969987      0.297650009       0.00000000    
 N1  0.297650009      0.395969987       0.00000000    
 C2  0.348360002      0.288470000       6.95500001E-02
 C2  0.288470000      0.348360002       6.95500001E-02
 C3  0.395559996      0.395559996      0.880590022    
 H1  0.240250006      0.360339999      0.113930002    
 H1  0.360339999      0.240250006      0.113930002    
 H2  0.444249988      0.444249988      0.893390000    
 H2  0.424030006      0.343160003      0.843859971    
 H2  0.343160003      0.424030006      0.843859971    
 C1  0.863189995      0.863189995      0.459859997    
 N1  0.895969987      0.797649980      0.500000000    
 N1  0.797649980      0.895969987      0.500000000    
 C2  0.848360002      0.788469970      0.569549978    
 C2  0.788469970      0.848360002      0.569549978    
 C3  0.895560026      0.895560026      0.380589992    
 H1  0.740249991      0.860339999      0.613929987    
 H1  0.860339999      0.740249991      0.613929987    
 H2  0.944249988      0.944249988      0.393390000    
 H2  0.924030006      0.843159974      0.343860000    
 H2  0.843159974      0.924030006      0.343860000    
 C1  0.459859997      0.136810005      0.136810005    
 N1  0.500000000      0.202350006      0.104029998    
 N1  0.500000000      0.104029998      0.202350006    
 C2  0.569549978      0.211530000      0.151639998    
 C2  0.569549978      0.151639998      0.211530000    
 C3  0.380589992      0.104440004      0.104440004    
 H1  0.613929987      0.139660001      0.259750009    
 H1  0.613929987      0.259750009      0.139660001    
 H2  0.327360004      0.136620000      0.136620000    
 H2  0.376879990      0.116410002       3.55300009E-02
 H2  0.376879990       3.55300009E-02  0.116410002    
 C1  0.959860027      0.636810005      0.636810005    
 N1   0.00000000      0.702350020      0.604030013    
 N1   0.00000000      0.604030013      0.702350020    
 C2   6.95500001E-02  0.711530030      0.651639998    
 C2   6.95500001E-02  0.651639998      0.711530030    
 C3  0.880590022      0.604439974      0.604439974    
 H1  0.113930002      0.639660001      0.759750009    
 H1  0.113930002      0.759750009      0.639660001    
 H2  0.827359974      0.636619985      0.636619985    
 H2  0.876879990      0.616410017      0.535529971    
 H2  0.876879990      0.535529971      0.616410017    
 C1  0.130019993      0.130019993      0.467229992    
 N1  0.104029998      0.202350006      0.500000000    
 N1  0.202350006      0.104029998      0.500000000    
 C2  0.163399994      0.223289996      0.556789994    
 C2  0.223289996      0.163399994      0.556789994    
 C3   8.42500031E-02   8.42500031E-02  0.402500004    
 H1  0.279020011      0.158920005      0.593029976    
 H1  0.158920005      0.279020011      0.593029976    
 H2   3.95600013E-02   3.95600013E-02  0.432680011    
 H2   4.86500002E-02  0.129519999      0.362650007    
 H2  0.129519999       4.86500002E-02  0.362650007    
 C1  0.636810005      0.636810005      0.959860027    
 N1  0.604030013      0.702350020       0.00000000    
 N1  0.702350020      0.604030013       0.00000000    
 C2  0.651639998      0.711530030       6.95500001E-02
 C2  0.711530030      0.651639998       6.95500001E-02
 C3  0.604439974      0.604439974      0.880590022    
 H1  0.759750009      0.639660001      0.113930002    
 H1  0.639660001      0.759750009      0.113930002    
 H2  0.555750012      0.555750012      0.893390000    
 H2  0.575969994      0.656840026      0.843859971    
 H2  0.656840026      0.575969994      0.843859971    
 C1  0.488009989      0.121540003      0.878459990    
 N1  0.500000000      0.104029998      0.797649980    
 N1  0.500000000      0.202350006      0.895969987    
 C2  0.520789981      0.178100005      0.762019992    
 C2  0.520789981      0.237979993      0.821900010    
 C3  0.464309990       5.90099990E-02  0.940989971    
 H1  0.534049988      0.303090006      0.816999972    
 H1  0.534049988      0.182999998      0.696910024    
 H2  0.394490004       5.51499985E-02  0.944850028    
 H2  0.490159988      0.996590018      0.922540009    
 H2  0.490159988       7.74599984E-02   3.40999989E-03
 C1  0.988009989      0.621540010      0.378459990    
 N1   0.00000000      0.604030013      0.297650009    
 N1   0.00000000      0.702350020      0.395969987    
 C2   2.07899995E-02  0.678099990      0.262019992    
 C2   2.07899995E-02  0.737980008      0.321900010    
 C3  0.964309990      0.559010029      0.440990001    
 H1   3.40499990E-02  0.803089976      0.317000002    
 H1   3.40499990E-02  0.683000028      0.196909994    
 H2  0.894490004      0.555149972      0.444849998    
 H2  0.990159988      0.496589988      0.422540009    
 H2  0.990159988      0.577459991      0.503409982    
